Version 4
SHEET 1 2380 680
WIRE 1040 -512 1040 -528
WIRE 1424 -512 1424 -528
WIRE 1200 -448 1104 -448
WIRE 1360 -448 1200 -448
WIRE 1040 -368 1040 -384
WIRE 1040 -368 704 -368
WIRE 1424 -352 1424 -384
WIRE 1424 -352 848 -352
WIRE 704 -336 704 -368
WIRE 848 -336 848 -352
WIRE 1040 -336 1040 -368
WIRE 1424 -336 1424 -352
WIRE 1296 -272 1104 -272
WIRE 1360 -272 1296 -272
WIRE 512 -256 512 -272
WIRE 1584 -256 1536 -256
WIRE 704 -192 704 -208
WIRE 848 -192 848 -208
WIRE 848 -192 704 -192
WIRE 1776 -192 1744 -192
WIRE 1040 -176 1040 -208
WIRE 1200 -176 1200 -448
WIRE 1200 -176 1040 -176
WIRE 1536 -176 1536 -256
WIRE 1536 -176 1200 -176
WIRE 1568 -176 1536 -176
WIRE 1648 -176 1648 -192
WIRE 1648 -176 1632 -176
WIRE 1424 -160 1424 -208
WIRE 1744 -160 1744 -192
WIRE 1744 -160 1424 -160
WIRE 1040 -144 1040 -176
WIRE 1424 -144 1424 -160
WIRE 512 -112 512 -128
WIRE 656 -112 512 -112
WIRE 1744 -112 1744 -160
WIRE 1760 -112 1744 -112
WIRE 1840 -112 1840 -128
WIRE 1840 -112 1824 -112
WIRE 512 -96 512 -112
WIRE 656 -96 656 -112
WIRE 1232 -80 1104 -80
WIRE 1360 -80 1232 -80
WIRE 848 -48 848 -64
WIRE 1840 -48 1840 -112
WIRE 1888 -48 1840 -48
WIRE 1648 0 1648 -176
WIRE 1728 0 1648 0
WIRE 1648 16 1648 0
WIRE 1840 16 1840 -48
WIRE 1424 32 1424 -16
WIRE 1424 32 656 32
WIRE 512 48 512 32
WIRE 1040 48 1040 -16
WIRE 1040 48 512 48
WIRE 1040 64 1040 48
WIRE 1424 64 1424 32
WIRE 1728 80 1728 0
WIRE 1728 80 1712 80
WIRE 1776 80 1728 80
WIRE 1312 128 1104 128
WIRE 1360 128 1312 128
WIRE 1040 208 1040 192
WIRE 1424 208 1424 192
FLAG 448 -192 Vbp
IOPIN 448 -192 In
FLAG 720 -32 V-
IOPIN 720 -32 In
FLAG 1312 128 Vbn
IOPIN 1312 128 In
FLAG 1232 -80 Vcn
IOPIN 1232 -80 In
FLAG 1296 -272 Vcp
IOPIN 1296 -272 In
FLAG 512 -272 Vdd
IOPIN 512 -272 In
FLAG 512 -192 Vdd
IOPIN 512 -192 In
FLAG 512 -32 Vdd
IOPIN 512 -32 In
FLAG 656 -32 Vdd
IOPIN 656 -32 In
FLAG 1040 -272 Vdd
IOPIN 1040 -272 In
FLAG 1040 -448 Vdd
IOPIN 1040 -448 In
FLAG 1040 -528 Vdd
IOPIN 1040 -528 In
FLAG 1424 -528 Vdd
IOPIN 1424 -528 In
FLAG 1424 -448 Vdd
IOPIN 1424 -448 In
FLAG 1424 -272 Vdd
IOPIN 1424 -272 In
FLAG 1040 -80 Vss
IOPIN 1040 -80 In
FLAG 1424 -80 Vss
IOPIN 1424 -80 In
FLAG 1040 128 Vss
IOPIN 1040 128 In
FLAG 1424 128 Vss
IOPIN 1424 128 In
FLAG 1040 208 Vss
IOPIN 1040 208 In
FLAG 1424 208 Vss
IOPIN 1424 208 In
FLAG 1648 80 Vss
IOPIN 1648 80 In
FLAG 1840 80 Vss
IOPIN 1840 80 In
FLAG 1648 144 Vss
IOPIN 1648 144 In
FLAG 1840 144 Vss
IOPIN 1840 144 In
FLAG 1648 -320 Vdd
IOPIN 1648 -320 In
FLAG 1648 -256 Vdd
IOPIN 1648 -256 In
FLAG 1840 -256 Vdd
IOPIN 1840 -256 In
FLAG 1840 -192 Vdd
IOPIN 1840 -192 In
FLAG 912 -128 Vbn
IOPIN 912 -128 In
FLAG 848 -128 Vss
IOPIN 848 -128 In
FLAG 704 -272 Vss
IOPIN 704 -272 In
FLAG 848 -272 Vss
IOPIN 848 -272 In
FLAG 848 -48 Vss
IOPIN 848 -48 In
FLAG 912 -272 V-
IOPIN 912 -272 In
FLAG 448 -32 V+
IOPIN 448 -32 In
FLAG 640 -272 V+
IOPIN 640 -272 In
FLAG 1888 -48 Vout
IOPIN 1888 -48 Out
SYMBOL cktsym\\nmos4 1040 128 M0
SYMATTR InstName M8
SYMATTR Value2 l=1.8u w=36u
SYMBOL cktsym\\nmos4 1040 -80 M0
SYMATTR InstName M9
SYMATTR Value2 l=1.8u w=36u
SYMBOL cktsym\\nmos4 1424 -80 R0
SYMATTR InstName M10
SYMATTR Value2 l=1.8u w=36u
SYMBOL cktsym\\nmos4 1424 128 R0
SYMATTR InstName M11
SYMATTR Value2 l=1.8u w=36u
SYMBOL cktsym\\pmos4 512 -32 R0
SYMATTR InstName M12
SYMATTR Value2 l=1.8u w=36u
SYMBOL cktsym\\pmos4 656 -32 M0
SYMATTR InstName M20
SYMATTR Value2 l=1.8u w=36u
SYMBOL cktsym\\pmos4 1040 -272 M0
SYMATTR InstName M21
SYMATTR Value2 l=1.8u w=36u
SYMBOL cktsym\\pmos4 1040 -448 M0
SYMATTR InstName M22
SYMATTR Value2 l=1.8u w=36u
SYMBOL cktsym\\pmos4 512 -192 R0
SYMATTR InstName M23
SYMATTR Value2 l=1.8u w=36u
SYMBOL cktsym\\pmos4 1424 -448 R0
SYMATTR InstName M24
SYMATTR Value2 l=1.8u w=36u
SYMBOL cktsym\\pmos4 1424 -272 R0
SYMATTR InstName M25
SYMATTR Value2 l=1.8u w=36u
SYMBOL cktsym\\pmos4 1648 -256 R0
SYMATTR InstName M1
SYMATTR Value2 l=1.8u w=360u
SYMBOL cktsym\\pmos4 1840 -192 R0
SYMATTR InstName M2
SYMATTR Value2 l=1.8u w=360u
SYMBOL cktsym\\nmos4 1840 80 R0
SYMATTR InstName M3
SYMATTR Value2 l=1.8u w=360u
SYMBOL cktsym\\nmos4 1648 80 M0
SYMATTR InstName M4
SYMATTR Value2 l=1.8u w=360u
SYMBOL cap 1632 -192 R90
WINDOW 0 0 32 VBottom 2
WINDOW 3 32 32 VTop 2
SYMATTR InstName C2
SYMATTR Value 2p
SYMBOL cap 1824 -128 R90
WINDOW 0 0 32 VBottom 2
WINDOW 3 32 32 VTop 2
SYMATTR InstName C3
SYMATTR Value 2p
SYMBOL cktsym\\nmos4 704 -272 M180
SYMATTR InstName M7
SYMATTR Value2 l=1.8u w=36u
SYMBOL cktsym\\nmos4 848 -272 M0
SYMATTR InstName M13
SYMATTR Value2 l=1.8u w=36u
SYMBOL cktsym\\nmos4 848 -128 M0
SYMATTR InstName M14
SYMATTR Value2 l=1.8u w=36u
TEXT 1088 264 Left 2 !.include engr3426.sub
TEXT 1088 240 Left 2 !.dc V2 0 5 0.01
