Version 4
SHEET 1 880 680
WIRE 272 96 272 80
WIRE 240 112 224 112
WIRE 384 144 368 144
WIRE 240 176 224 176
WIRE 272 208 272 192
FLAG 0 80 Vdd
FLAG 272 80 Vdd
IOPIN 272 80 In
FLAG 272 208 Vss
IOPIN 272 208 In
FLAG 0 208 Vss
FLAG 96 192 Vbn
FLAG 304 176 Vbn
FLAG 96 160 Vcn
FLAG 336 160 Vcn
FLAG 336 128 Vcp
FLAG 96 128 Vcp
FLAG 96 96 Vbp
FLAG 304 112 Vbp
FLAG 224 112 V+
IOPIN 224 112 In
FLAG 224 176 V-
IOPIN 224 176 In
FLAG 384 144 Vout
IOPIN 384 144 Out
SYMBOL bias 32 144 R0
SYMATTR InstName X2
SYMBOL amp 288 144 R0
SYMATTR InstName X1
