Version 4
SHEET 1 2380 680
WIRE 1248 -928 1248 -960
WIRE 1248 -896 1248 -928
WIRE 816 -576 816 -592
WIRE 1040 -496 1040 -512
WIRE 1424 -496 1424 -512
WIRE 2112 -480 2032 -480
WIRE 816 -432 816 -448
WIRE 816 -432 720 -432
WIRE 880 -432 816 -432
WIRE 1200 -432 1104 -432
WIRE 1360 -432 1200 -432
WIRE 720 -416 720 -432
WIRE 880 -416 880 -432
WIRE 1968 -416 1952 -416
WIRE 2112 -416 2112 -480
WIRE 2112 -416 2096 -416
WIRE 1040 -368 1008 -368
WIRE 1424 -352 1424 -368
WIRE 1424 -352 1024 -352
WIRE 1008 -336 1008 -368
WIRE 1008 -336 944 -336
WIRE 1040 -336 1040 -368
WIRE 1424 -336 1424 -352
WIRE 1024 -320 1024 -352
WIRE 1024 -320 960 -320
WIRE 944 -304 944 -336
WIRE 944 -304 864 -304
WIRE 848 -288 720 -288
WIRE 960 -288 960 -320
WIRE 960 -288 896 -288
WIRE 1952 -288 1952 -416
WIRE 1968 -288 1952 -288
WIRE 2112 -288 2112 -416
WIRE 2112 -288 2096 -288
WIRE 1296 -272 1104 -272
WIRE 1360 -272 1296 -272
WIRE 1584 -256 1536 -256
WIRE 1952 -224 1952 -288
WIRE 2032 -224 1952 -224
WIRE 880 -208 880 -288
WIRE 960 -208 880 -208
WIRE 864 -192 864 -304
WIRE 880 -192 864 -192
WIRE 1776 -192 1744 -192
WIRE 848 -176 848 -288
WIRE 928 -176 848 -176
WIRE 1040 -176 1040 -208
WIRE 1200 -176 1200 -432
WIRE 1200 -176 1040 -176
WIRE 1536 -176 1536 -256
WIRE 1536 -176 1200 -176
WIRE 1568 -176 1536 -176
WIRE 1648 -176 1648 -192
WIRE 1648 -176 1632 -176
WIRE 1424 -160 1424 -208
WIRE 1744 -160 1744 -192
WIRE 1744 -160 1424 -160
WIRE 1040 -144 1040 -176
WIRE 1424 -144 1424 -160
WIRE 1744 -112 1744 -160
WIRE 1760 -112 1744 -112
WIRE 1840 -112 1840 -128
WIRE 1840 -112 1824 -112
WIRE 880 -80 880 -192
WIRE 880 -80 688 -80
WIRE 1232 -80 1104 -80
WIRE 1360 -80 1232 -80
WIRE 688 -64 688 -80
WIRE 896 -64 896 -288
WIRE 896 -64 832 -64
WIRE 1840 -64 1840 -112
WIRE 960 0 960 -208
WIRE 1424 0 1424 -16
WIRE 1424 0 960 0
WIRE 1648 0 1648 -176
WIRE 1728 0 1648 0
WIRE 928 16 928 -176
WIRE 1040 16 1040 -16
WIRE 1040 16 928 16
WIRE 1424 16 1424 0
WIRE 1648 16 1648 0
WIRE 1840 16 1840 -64
WIRE 1312 80 1104 80
WIRE 1360 80 1312 80
WIRE 1728 80 1728 0
WIRE 1728 80 1712 80
WIRE 1776 80 1728 80
WIRE 688 144 688 64
WIRE 752 144 688 144
WIRE 832 144 832 64
WIRE 832 144 752 144
WIRE 1040 160 1040 144
WIRE 1424 160 1424 144
FLAG 752 -512 Vbp
IOPIN 752 -512 In
FLAG 944 -352 V-
IOPIN 944 -352 In
FLAG 1312 80 Vbn
IOPIN 1312 80 In
FLAG 1232 -80 Vcn
IOPIN 1232 -80 In
FLAG 1296 -272 Vcp
IOPIN 1296 -272 In
FLAG 816 -592 Vdd
IOPIN 816 -592 In
FLAG 816 -512 Vdd
IOPIN 816 -512 In
FLAG 720 -352 Vdd
IOPIN 720 -352 In
FLAG 880 -352 Vdd
IOPIN 880 -352 In
FLAG 1040 -272 Vdd
IOPIN 1040 -272 In
FLAG 1040 -432 Vdd
IOPIN 1040 -432 In
FLAG 1040 -512 Vdd
IOPIN 1040 -512 In
FLAG 1424 -512 Vdd
IOPIN 1424 -512 In
FLAG 1424 -432 Vdd
IOPIN 1424 -432 In
FLAG 1424 -272 Vdd
IOPIN 1424 -272 In
FLAG 1040 -80 Vss
IOPIN 1040 -80 In
FLAG 1424 -80 Vss
IOPIN 1424 -80 In
FLAG 1040 80 Vss
IOPIN 1040 80 In
FLAG 1424 80 Vss
IOPIN 1424 80 In
FLAG 1040 160 Vss
IOPIN 1040 160 In
FLAG 1424 160 Vss
IOPIN 1424 160 In
FLAG 1696 -992 Vcp
FLAG 1696 -1024 Vbp
FLAG 1696 -960 Vcn
FLAG 1696 -928 Vbn
FLAG 1600 -912 Vss
FLAG 1600 -1040 Vdd
FLAG 1248 -1040 Vdd
FLAG 1248 -928 Vss
FLAG 2048 -928 0
FLAG 1952 -928 0
FLAG 1952 -1008 V+
FLAG 2048 -1008 V-
FLAG 1248 -896 0
FLAG 1648 80 Vss
IOPIN 1648 80 In
FLAG 1840 80 Vss
IOPIN 1840 80 In
FLAG 1648 144 Vss
IOPIN 1648 144 In
FLAG 1840 144 Vss
IOPIN 1840 144 In
FLAG 1648 -320 Vdd
IOPIN 1648 -320 In
FLAG 1648 -256 Vdd
IOPIN 1648 -256 In
FLAG 1840 -256 Vdd
IOPIN 1840 -256 In
FLAG 1840 -192 Vdd
IOPIN 1840 -192 In
FLAG 1840 -64 Vout
FLAG 2032 -288 0
FLAG 2032 -416 0
FLAG 816 208 Vbn
IOPIN 816 208 In
FLAG 752 208 Vss
IOPIN 752 208 In
FLAG 688 0 Vss
IOPIN 688 0 In
FLAG 832 0 Vss
IOPIN 832 0 In
FLAG 752 272 Vss
IOPIN 752 272 In
FLAG 896 0 V-
IOPIN 896 0 In
FLAG 656 -352 V+
IOPIN 656 -352 In
FLAG 624 0 V+
IOPIN 624 0 In
SYMBOL cktsym\\nmos4 1040 80 M0
SYMATTR InstName M8
SYMATTR Value2 l=1.8u w=36u
SYMBOL cktsym\\nmos4 1040 -80 M0
SYMATTR InstName M9
SYMATTR Value2 l=1.8u w=36u
SYMBOL cktsym\\nmos4 1424 -80 R0
SYMATTR InstName M10
SYMATTR Value2 l=1.8u w=36u
SYMBOL cktsym\\nmos4 1424 80 R0
SYMATTR InstName M11
SYMATTR Value2 l=1.8u w=36u
SYMBOL cktsym\\pmos4 720 -352 R0
SYMATTR InstName M12
SYMATTR Value2 l=1.8u w=36u
SYMBOL cktsym\\pmos4 880 -352 M0
SYMATTR InstName M20
SYMATTR Value2 l=1.8u w=36u
SYMBOL cktsym\\pmos4 1040 -272 M0
SYMATTR InstName M21
SYMATTR Value2 l=1.8u w=36u
SYMBOL cktsym\\pmos4 1040 -432 M0
SYMATTR InstName M22
SYMATTR Value2 l=1.8u w=36u
SYMBOL cktsym\\pmos4 816 -512 R0
SYMATTR InstName M23
SYMATTR Value2 l=1.8u w=36u
SYMBOL cktsym\\pmos4 1424 -432 R0
SYMATTR InstName M24
SYMATTR Value2 l=1.8u w=36u
SYMBOL cktsym\\pmos4 1424 -272 R0
SYMATTR InstName M25
SYMATTR Value2 l=1.8u w=36u
SYMBOL bias 1632 -976 R0
SYMATTR InstName X1
SYMBOL voltage 1248 -1056 R0
WINDOW 123 0 0 Left 2
WINDOW 39 0 0 Left 2
SYMATTR InstName V1
SYMATTR Value 5
SYMBOL voltage 1952 -1024 R0
WINDOW 123 0 0 Left 2
WINDOW 39 0 0 Left 2
SYMATTR InstName V2
SYMATTR Value 4.7
SYMBOL voltage 2048 -1024 R0
WINDOW 123 0 0 Left 2
WINDOW 39 0 0 Left 2
SYMATTR InstName V3
SYMATTR Value SINE(2.5 2.5 1k)
SYMBOL cktsym\\pmos4 1648 -256 R0
SYMATTR InstName M1
SYMATTR Value2 l=1.8u w=36u
SYMBOL cktsym\\pmos4 1840 -192 R0
SYMATTR InstName M2
SYMATTR Value2 l=1.8u w=36u
SYMBOL cktsym\\nmos4 1840 80 R0
SYMATTR InstName M3
SYMATTR Value2 l=1.8u w=36u
SYMBOL cktsym\\nmos4 1648 80 M0
SYMATTR InstName M4
SYMATTR Value2 l=1.8u w=36u
SYMBOL cap 1632 -192 R90
WINDOW 0 0 32 VBottom 2
WINDOW 3 32 32 VTop 2
SYMATTR InstName C2
SYMATTR Value 2p
SYMBOL cap 1824 -128 R90
WINDOW 0 0 32 VBottom 2
WINDOW 3 32 32 VTop 2
SYMATTR InstName C3
SYMATTR Value 2p
SYMBOL cktsym\\nmos4 2032 -416 R90
SYMATTR InstName M6
SYMATTR Value2 l=1.8u w=36u
SYMBOL cktsym\\nmos4 2032 -288 R270
SYMATTR InstName M5
SYMATTR Value2 l=1.8u w=36u
SYMBOL cktsym\\nmos4 688 0 M180
SYMATTR InstName M7
SYMATTR Value2 l=1.8u w=36u
SYMBOL cktsym\\nmos4 832 0 M0
SYMATTR InstName M13
SYMATTR Value2 l=1.8u w=36u
SYMBOL cktsym\\nmos4 752 208 M0
SYMATTR InstName M14
SYMATTR Value2 l=1.8u w=36u
TEXT 1528 -760 Left 2 !.include engr3426.sub
TEXT 904 -1072 Left 2 !.dc V2 0 5 0.01
