Version 4
SHEET 1 2376 680
WIRE 1040 -496 1040 -512
WIRE 1424 -496 1424 -512
WIRE 2112 -480 2032 -480
WIRE 1200 -432 1104 -432
WIRE 1360 -432 1200 -432
WIRE 1968 -416 1952 -416
WIRE 2112 -416 2112 -480
WIRE 2112 -416 2096 -416
WIRE 816 -368 816 -384
WIRE 1040 -336 1040 -368
WIRE 1424 -336 1424 -368
WIRE 1952 -288 1952 -416
WIRE 1968 -288 1952 -288
WIRE 2112 -288 2112 -416
WIRE 2112 -288 2096 -288
WIRE 1296 -272 1104 -272
WIRE 1360 -272 1296 -272
WIRE 352 -256 352 -288
WIRE 1584 -256 1536 -256
WIRE 352 -224 352 -256
WIRE 816 -224 816 -240
WIRE 816 -224 720 -224
WIRE 880 -224 816 -224
WIRE 1952 -224 1952 -288
WIRE 2032 -224 1952 -224
WIRE 720 -208 720 -224
WIRE 880 -208 880 -224
WIRE 1776 -192 1744 -192
WIRE 1040 -176 1040 -208
WIRE 1088 -176 1040 -176
WIRE 1200 -176 1200 -432
WIRE 1200 -176 1168 -176
WIRE 1536 -176 1536 -256
WIRE 1536 -176 1200 -176
WIRE 1568 -176 1536 -176
WIRE 1648 -176 1648 -192
WIRE 1648 -176 1632 -176
WIRE 1200 -160 1200 -176
WIRE 1296 -160 1200 -160
WIRE 1424 -160 1424 -208
WIRE 1424 -160 1376 -160
WIRE 1744 -160 1744 -192
WIRE 1744 -160 1424 -160
WIRE 1040 -144 1040 -176
WIRE 1424 -144 1424 -160
WIRE 1744 -112 1744 -160
WIRE 1760 -112 1744 -112
WIRE 1840 -112 1840 -128
WIRE 1840 -112 1824 -112
WIRE 1312 -80 1104 -80
WIRE 1360 -80 1312 -80
WIRE 1840 -64 1840 -112
WIRE 880 0 880 -80
WIRE 1424 0 1424 -16
WIRE 1424 0 880 0
WIRE 1648 0 1648 -176
WIRE 1728 0 1648 0
WIRE 720 16 720 -80
WIRE 1040 16 1040 -16
WIRE 1040 16 720 16
WIRE 1424 16 1424 0
WIRE 1648 16 1648 0
WIRE 1840 16 1840 -64
WIRE 1312 80 1104 80
WIRE 1360 80 1312 80
WIRE 1728 80 1728 0
WIRE 1728 80 1712 80
WIRE 1776 80 1728 80
WIRE 1040 160 1040 144
WIRE 1424 160 1424 144
FLAG 752 -304 Vbp
IOPIN 752 -304 In
FLAG 656 -144 V+
IOPIN 656 -144 In
FLAG 944 -144 V-
IOPIN 944 -144 In
FLAG 1312 80 Vbn
IOPIN 1312 80 In
FLAG 1312 -80 Vcn
IOPIN 1312 -80 In
FLAG 1296 -272 Vcp
IOPIN 1296 -272 In
FLAG 816 -384 Vdd
IOPIN 816 -384 In
FLAG 816 -304 Vdd
IOPIN 816 -304 In
FLAG 720 -144 Vdd
IOPIN 720 -144 In
FLAG 880 -144 Vdd
IOPIN 880 -144 In
FLAG 1040 -272 Vdd
IOPIN 1040 -272 In
FLAG 1040 -432 Vdd
IOPIN 1040 -432 In
FLAG 1040 -512 Vdd
IOPIN 1040 -512 In
FLAG 1424 -512 Vdd
IOPIN 1424 -512 In
FLAG 1424 -432 Vdd
IOPIN 1424 -432 In
FLAG 1424 -272 Vdd
IOPIN 1424 -272 In
FLAG 1040 -80 Vss
IOPIN 1040 -80 In
FLAG 1424 -80 Vss
IOPIN 1424 -80 In
FLAG 1040 80 Vss
IOPIN 1040 80 In
FLAG 1424 80 Vss
IOPIN 1424 80 In
FLAG 1040 160 Vss
IOPIN 1040 160 In
FLAG 1424 160 Vss
IOPIN 1424 160 In
FLAG 544 -48 Vcp
FLAG 544 -80 Vbp
FLAG 544 -16 Vcn
FLAG 544 16 Vbn
FLAG 448 32 Vss
FLAG 448 -96 Vdd
FLAG 352 -368 Vdd
FLAG 352 -256 Vss
FLAG 624 240 0
FLAG 528 240 0
FLAG 528 160 V+
FLAG 624 160 V-
FLAG 352 -224 0
FLAG 1648 80 Vss
IOPIN 1648 80 In
FLAG 1840 80 Vss
IOPIN 1840 80 In
FLAG 1648 144 Vss
IOPIN 1648 144 In
FLAG 1840 144 Vss
IOPIN 1840 144 In
FLAG 1648 -320 Vdd
IOPIN 1648 -320 In
FLAG 1648 -256 Vdd
IOPIN 1648 -256 In
FLAG 1840 -256 Vdd
IOPIN 1840 -256 In
FLAG 1840 -192 Vdd
IOPIN 1840 -192 In
FLAG 1840 -64 Vout
FLAG 2032 -288 0
FLAG 2032 -416 0
SYMBOL cktsym\\nmos4 1040 80 M0
SYMATTR InstName M8
SYMATTR Value2 l=1.8u w=36u
SYMBOL cktsym\\nmos4 1040 -80 M0
SYMATTR InstName M9
SYMATTR Value2 l=1.8u w=36u
SYMBOL cktsym\\nmos4 1424 -80 R0
SYMATTR InstName M10
SYMATTR Value2 l=1.8u w=36u
SYMBOL cktsym\\nmos4 1424 80 R0
SYMATTR InstName M11
SYMATTR Value2 l=1.8u w=36u
SYMBOL cktsym\\pmos4 720 -144 R0
SYMATTR InstName M12
SYMATTR Value2 l=1.8u w=36u
SYMBOL cktsym\\pmos4 880 -144 M0
SYMATTR InstName M20
SYMATTR Value2 l=1.8u w=36u
SYMBOL cktsym\\pmos4 1040 -272 M0
SYMATTR InstName M21
SYMATTR Value2 l=1.8u w=36u
SYMBOL cktsym\\pmos4 1040 -432 M0
SYMATTR InstName M22
SYMATTR Value2 l=1.8u w=36u
SYMBOL cktsym\\pmos4 816 -304 R0
SYMATTR InstName M23
SYMATTR Value2 l=1.8u w=36u
SYMBOL cktsym\\pmos4 1424 -432 R0
SYMATTR InstName M24
SYMATTR Value2 l=1.8u w=36u
SYMBOL cktsym\\pmos4 1424 -272 R0
SYMATTR InstName M25
SYMATTR Value2 l=1.8u w=36u
SYMBOL bias 480 -32 R0
SYMATTR InstName X1
SYMBOL voltage 352 -384 R0
WINDOW 123 0 0 Left 2
WINDOW 39 0 0 Left 2
SYMATTR InstName V1
SYMATTR Value 5
SYMBOL voltage 528 144 R0
WINDOW 123 0 0 Left 2
WINDOW 39 0 0 Left 2
SYMATTR InstName V2
SYMATTR Value 2.5
SYMBOL voltage 624 144 R0
WINDOW 123 0 0 Left 2
WINDOW 39 0 0 Left 2
SYMATTR InstName V3
SYMATTR Value 2.5
SYMBOL cktsym\\pmos4 1648 -256 R0
SYMATTR InstName M1
SYMATTR Value2 l=1.8u w=36u
SYMBOL cktsym\\pmos4 1840 -192 R0
SYMATTR InstName M2
SYMATTR Value2 l=1.8u w=36u
SYMBOL cktsym\\nmos4 1840 80 R0
SYMATTR InstName M3
SYMATTR Value2 l=1.8u w=36u
SYMBOL cktsym\\nmos4 1648 80 M0
SYMATTR InstName M4
SYMATTR Value2 l=1.8u w=36u
SYMBOL cap 1632 -192 R90
WINDOW 0 0 32 VBottom 2
WINDOW 3 32 32 VTop 2
SYMATTR InstName C2
SYMATTR Value 2p
SYMBOL cap 1824 -128 R90
WINDOW 0 0 32 VBottom 2
WINDOW 3 32 32 VTop 2
SYMATTR InstName C3
SYMATTR Value 2p
SYMBOL res 1184 -192 R90
WINDOW 0 0 56 VBottom 2
WINDOW 3 32 56 VTop 2
SYMATTR InstName R1
SYMATTR Value 1Meg
SYMBOL res 1392 -176 R90
WINDOW 0 0 56 VBottom 2
WINDOW 3 32 56 VTop 2
SYMATTR InstName R2
SYMATTR Value 1Meg
SYMBOL cktsym\\nmos4 2032 -416 R90
SYMATTR InstName M6
SYMATTR Value2 l=1.8u w=36u
SYMBOL cktsym\\nmos4 2032 -288 R270
SYMATTR InstName M5
SYMATTR Value2 l=1.8u w=36u
SYMBOL res 2240 -400 R0
SYMATTR InstName R3
TEXT 696 64 Left 2 !.include engr3426.sub
TEXT 436 -234 Left 2 !.dc V2 0 5 1e-3
