Version 4
SHEET 1 1492 680
WIRE 1040 -464 1040 -480
WIRE 1264 -464 1264 -480
WIRE 1152 -400 1104 -400
WIRE 1200 -400 1152 -400
WIRE 816 -368 816 -384
WIRE 1040 -304 1040 -336
WIRE 1264 -304 1264 -336
WIRE 1136 -240 1104 -240
WIRE 1200 -240 1136 -240
WIRE 816 -224 816 -240
WIRE 816 -224 720 -224
WIRE 880 -224 816 -224
WIRE 720 -208 720 -224
WIRE 880 -208 880 -224
WIRE 1040 -160 1040 -176
WIRE 1152 -160 1152 -400
WIRE 1152 -160 1040 -160
WIRE 1264 -160 1264 -176
WIRE 1280 -160 1264 -160
WIRE 1040 -144 1040 -160
WIRE 1264 -144 1264 -160
WIRE 1152 -80 1104 -80
WIRE 1200 -80 1152 -80
WIRE 880 0 880 -80
WIRE 1264 0 1264 -16
WIRE 1264 0 880 0
WIRE 720 16 720 -80
WIRE 1040 16 1040 -16
WIRE 1040 16 720 16
WIRE 1264 16 1264 0
WIRE 1152 80 1104 80
WIRE 1200 80 1152 80
WIRE 1040 160 1040 144
WIRE 1264 160 1264 144
FLAG 752 -304 Vbp
IOPIN 752 -304 In
FLAG 656 -144 V+
IOPIN 656 -144 In
FLAG 944 -144 V-
IOPIN 944 -144 In
FLAG 1152 80 Vbn
IOPIN 1152 80 In
FLAG 1152 -80 Vcn
IOPIN 1152 -80 In
FLAG 1136 -240 Vcp
IOPIN 1136 -240 In
FLAG 816 -384 Vdd
IOPIN 816 -384 In
FLAG 816 -304 Vdd
IOPIN 816 -304 In
FLAG 720 -144 Vdd
IOPIN 720 -144 In
FLAG 880 -144 Vdd
IOPIN 880 -144 In
FLAG 1040 -240 Vdd
IOPIN 1040 -240 In
FLAG 1040 -400 Vdd
IOPIN 1040 -400 In
FLAG 1040 -480 Vdd
IOPIN 1040 -480 In
FLAG 1264 -480 Vdd
IOPIN 1264 -480 In
FLAG 1264 -400 Vdd
IOPIN 1264 -400 In
FLAG 1264 -240 Vdd
IOPIN 1264 -240 In
FLAG 1040 -80 Vss
IOPIN 1040 -80 In
FLAG 1264 -80 Vss
IOPIN 1264 -80 In
FLAG 1040 80 Vss
IOPIN 1040 80 In
FLAG 1264 80 Vss
IOPIN 1264 80 In
FLAG 1040 160 Vss
IOPIN 1040 160 In
FLAG 1264 160 Vss
IOPIN 1264 160 In
FLAG 1280 -160 Vout
IOPIN 1280 -160 Out
SYMBOL cktsym\\nmos4 1040 80 M0
SYMATTR InstName M8
SYMATTR Value2 l=1.8u w=36u
SYMBOL cktsym\\nmos4 1040 -80 M0
SYMATTR InstName M9
SYMATTR Value2 l=1.8u w=36u
SYMBOL cktsym\\nmos4 1264 -80 R0
SYMATTR InstName M10
SYMATTR Value2 l=1.8u w=36u
SYMBOL cktsym\\nmos4 1264 80 R0
SYMATTR InstName M11
SYMATTR Value2 l=1.8u w=36u
SYMBOL cktsym\\pmos4 720 -144 R0
SYMATTR InstName M12
SYMATTR Value2 l=1.8u w=36u
SYMBOL cktsym\\pmos4 880 -144 M0
SYMATTR InstName M20
SYMATTR Value2 l=1.8u w=36u
SYMBOL cktsym\\pmos4 1040 -240 M0
SYMATTR InstName M21
SYMATTR Value2 l=1.8u w=36u
SYMBOL cktsym\\pmos4 1040 -400 M0
SYMATTR InstName M22
SYMATTR Value2 l=1.8u w=36u
SYMBOL cktsym\\pmos4 816 -304 R0
SYMATTR InstName M23
SYMATTR Value2 l=1.8u w=36u
SYMBOL cktsym\\pmos4 1264 -400 R0
SYMATTR InstName M24
SYMATTR Value2 l=1.8u w=36u
SYMBOL cktsym\\pmos4 1264 -240 R0
SYMATTR InstName M25
SYMATTR Value2 l=1.8u w=36u
TEXT 696 64 Left 2 !.include engr3426.sub
