Version 4
SHEET 1 1128 680
WIRE 832 -432 816 -432
WIRE 832 -384 832 -432
WIRE 768 -320 464 -320
WIRE 112 -288 96 -288
WIRE 272 -288 256 -288
WIRE 832 -240 832 -256
WIRE 832 -240 736 -240
WIRE 896 -240 832 -240
WIRE 112 -224 112 -288
WIRE 272 -224 272 -288
WIRE 736 -224 736 -240
WIRE 896 -224 896 -240
WIRE 48 -160 32 -160
WIRE 352 -160 336 -160
WIRE 464 -160 464 -320
WIRE 480 -160 464 -160
WIRE 672 -160 656 -160
WIRE 976 -160 960 -160
WIRE 480 -144 480 -160
WIRE -128 -112 -144 -112
WIRE -192 -80 -288 -80
WIRE -128 -80 -128 -112
WIRE 32 -80 32 -160
WIRE 32 -80 -64 -80
WIRE 192 -80 32 -80
WIRE 272 -80 272 -96
WIRE 272 -80 192 -80
WIRE 416 -80 272 -80
WIRE 656 -80 656 -160
WIRE 656 -80 544 -80
WIRE 896 -80 896 -96
WIRE 896 -80 656 -80
WIRE 1040 -80 896 -80
WIRE 464 -64 464 -160
WIRE 464 -64 448 -64
WIRE 464 -48 464 -64
WIRE 480 -48 480 -80
WIRE 512 -48 480 -48
WIRE -144 -16 -160 -16
WIRE -208 16 -256 16
WIRE -144 16 -144 -16
WIRE 112 16 112 -96
WIRE 112 16 -80 16
WIRE 192 16 112 16
WIRE 352 16 352 -160
WIRE 352 16 192 16
WIRE 400 16 352 16
WIRE 736 16 736 -96
WIRE 736 16 528 16
WIRE 976 16 976 -160
WIRE 976 16 736 16
WIRE 1008 16 976 16
WIRE 112 32 112 16
WIRE 272 32 272 -80
WIRE 736 32 736 16
WIRE 896 32 896 -80
WIRE 464 48 464 16
WIRE 512 48 464 48
WIRE -144 96 -144 80
WIRE -128 96 -128 -16
WIRE -128 96 -144 96
WIRE 32 96 32 -80
WIRE 48 96 32 96
WIRE 352 96 352 16
WIRE 352 96 336 96
WIRE 656 96 656 -80
WIRE 672 96 656 96
WIRE 976 96 976 16
WIRE 976 96 960 96
WIRE 112 176 112 160
WIRE 208 176 112 176
WIRE 272 176 272 160
WIRE 272 176 208 176
WIRE 208 192 208 176
WIRE 736 208 736 160
WIRE 736 208 720 208
WIRE 896 208 896 160
WIRE 896 208 880 208
WIRE -144 256 -144 96
WIRE -144 256 -256 256
WIRE 128 256 -144 256
WIRE 144 256 128 256
WIRE 128 272 128 256
WIRE 448 272 448 -64
WIRE 448 272 128 272
WIRE 208 336 208 320
WIRE 208 336 192 336
FLAG 256 -288 Vdd
IOPIN 256 -288 In
FLAG 96 -288 Vdd
IOPIN 96 -288 In
FLAG 192 336 Vss
IOPIN 192 336 In
FLAG 272 96 Vss
IOPIN 272 96 In
FLAG 112 96 Vss
IOPIN 112 96 In
FLAG 272 -160 Vdd
IOPIN 272 -160 In
FLAG 112 -160 Vdd
IOPIN 112 -160 In
FLAG 208 256 Vss
IOPIN 208 256 In
FLAG -144 -112 Vdd
IOPIN -144 -112 In
FLAG -160 -16 Vdd
IOPIN -160 -16 In
FLAG 512 -48 Vss
IOPIN 512 -48 In
FLAG 512 48 Vss
IOPIN 512 48 In
FLAG 896 96 Vss
IOPIN 896 96 In
FLAG 736 96 Vss
IOPIN 736 96 In
FLAG 896 -160 Vdd
IOPIN 896 -160 In
FLAG 736 -160 Vdd
IOPIN 736 -160 In
FLAG 832 -320 Vdd
IOPIN 832 -320 In
FLAG 816 -432 Vdd
IOPIN 816 -432 In
FLAG -288 -80 D
IOPIN -288 -80 In
FLAG -256 16 Dbar
IOPIN -256 16 In
FLAG 1040 -80 Q
IOPIN 1040 -80 Out
FLAG 1008 16 Qbar
IOPIN 1008 16 Out
FLAG -256 256 Clk
IOPIN -256 256 In
FLAG 720 208 Vss
IOPIN 720 208 In
FLAG 880 208 Vss
IOPIN 880 208 In
FLAG 192 -80 A
FLAG 192 16 B
SYMBOL cktsym\\pmos4 -144 16 R270
WINDOW 0 -38 73 VRight 2
WINDOW 3 16 16 Invisible 2
SYMATTR InstName M2
SYMATTR Value2 l=1u w=2u
SYMBOL cktsym\\pmos4 -128 -80 R270
WINDOW 0 -55 46 VRight 2
WINDOW 3 16 16 Invisible 2
SYMATTR InstName M1
SYMATTR Value2 l=1u w=2u
SYMBOL cktsym\\nmos4 464 16 R90
WINDOW 0 -27 52 VRight 2
WINDOW 3 16 16 Invisible 2
SYMATTR InstName M4
SYMATTR Value2 l=4u w=1u
SYMBOL cktsym\\nmos4 208 256 R0
WINDOW 0 -83 -30 Left 2
WINDOW 3 16 16 Invisible 2
SYMATTR InstName M5
SYMATTR Value2 l=1u w=2u
SYMBOL cktsym\\nmos4 112 96 R0
WINDOW 0 -83 29 Left 2
WINDOW 3 16 16 Invisible 2
SYMATTR InstName M6
SYMATTR Value2 l=1u w=1u
SYMBOL cktsym\\nmos4 272 96 M0
WINDOW 0 -79 54 Left 2
WINDOW 3 16 16 Invisible 2
SYMATTR InstName M7
SYMATTR Value2 l=1u w=1u
SYMBOL cktsym\\pmos4 112 -160 R0
WINDOW 0 -77 -51 Left 2
WINDOW 3 16 16 Invisible 2
SYMATTR InstName M8
SYMATTR Value2 l=1u w=2u
SYMBOL cktsym\\pmos4 272 -160 M0
WINDOW 0 -72 -57 Left 2
WINDOW 3 16 16 Invisible 2
SYMATTR InstName M9
SYMATTR Value2 l=1u w=2u
SYMBOL cktsym\\pmos4 832 -320 R0
WINDOW 0 26 -43 Left 2
WINDOW 3 16 16 Invisible 2
SYMATTR InstName M10
SYMATTR Value2 l=1u w=2u
SYMBOL cktsym\\nmos4 480 -80 R90
WINDOW 0 -31 57 VRight 2
WINDOW 3 16 16 Invisible 2
SYMATTR InstName M3
SYMATTR Value2 l=4u w=1u
SYMBOL cktsym\\nmos4 736 96 R0
WINDOW 0 -103 37 Left 2
WINDOW 3 16 16 Invisible 2
SYMATTR InstName M13
SYMATTR Value2 l=1u w=1u
SYMBOL cktsym\\nmos4 896 96 M0
WINDOW 0 -92 58 Left 2
WINDOW 3 16 16 Invisible 2
SYMATTR InstName M14
SYMATTR Value2 l=1u w=1u
SYMBOL cktsym\\pmos4 736 -160 R0
WINDOW 0 -89 -51 Left 2
WINDOW 3 16 16 Invisible 2
SYMATTR InstName M11
SYMATTR Value2 l=1u w=2u
SYMBOL cktsym\\pmos4 896 -160 M0
WINDOW 0 -71 -63 Left 2
WINDOW 3 16 16 Invisible 2
SYMATTR InstName M12
SYMATTR Value2 l=1u w=2u
TEXT -232 288 Left 2 !.include engr3426.sub
