Version 4
SHEET 1 1276 680
WIRE 976 -432 960 -432
WIRE 976 -384 976 -432
WIRE 912 -320 464 -320
WIRE 112 -288 96 -288
WIRE 272 -288 256 -288
WIRE 976 -240 976 -256
WIRE 976 -240 880 -240
WIRE 1040 -240 976 -240
WIRE 112 -224 112 -288
WIRE 272 -224 272 -288
WIRE 880 -224 880 -240
WIRE 1040 -224 1040 -240
WIRE 48 -160 32 -160
WIRE 352 -160 336 -160
WIRE 464 -160 464 -320
WIRE 480 -160 464 -160
WIRE 688 -160 672 -160
WIRE 816 -160 800 -160
WIRE 1120 -160 1104 -160
WIRE 480 -144 480 -160
WIRE 688 -144 688 -160
WIRE -128 -112 -144 -112
WIRE -192 -80 -288 -80
WIRE -128 -80 -128 -112
WIRE 32 -80 32 -160
WIRE 32 -80 -64 -80
WIRE 192 -80 32 -80
WIRE 272 -80 272 -96
WIRE 272 -80 192 -80
WIRE 416 -80 272 -80
WIRE 624 -80 544 -80
WIRE 800 -80 800 -160
WIRE 800 -80 752 -80
WIRE 1040 -80 1040 -96
WIRE 1040 -80 800 -80
WIRE 1184 -80 1040 -80
WIRE 464 -64 464 -160
WIRE 464 -64 448 -64
WIRE 464 -48 464 -64
WIRE 480 -48 480 -80
WIRE 512 -48 480 -48
WIRE 672 -48 672 -160
WIRE 672 -48 656 -48
WIRE 688 -48 688 -80
WIRE 720 -48 688 -48
WIRE -144 -16 -160 -16
WIRE -208 16 -256 16
WIRE -144 16 -144 -16
WIRE 112 16 112 -96
WIRE 112 16 -80 16
WIRE 192 16 112 16
WIRE 352 16 352 -160
WIRE 352 16 192 16
WIRE 400 16 352 16
WIRE 608 16 528 16
WIRE 880 16 880 -96
WIRE 880 16 736 16
WIRE 1120 16 1120 -160
WIRE 1120 16 880 16
WIRE 1152 16 1120 16
WIRE 112 32 112 16
WIRE 272 32 272 -80
WIRE 880 32 880 16
WIRE 1040 32 1040 -80
WIRE 464 48 464 16
WIRE 512 48 464 48
WIRE 672 48 672 16
WIRE 704 48 672 48
WIRE -144 96 -144 80
WIRE -128 96 -128 -16
WIRE -128 96 -144 96
WIRE 32 96 32 -80
WIRE 48 96 32 96
WIRE 352 96 352 16
WIRE 352 96 336 96
WIRE 656 96 656 -48
WIRE 656 96 640 96
WIRE 800 96 800 -80
WIRE 816 96 800 96
WIRE 1120 96 1120 16
WIRE 1120 96 1104 96
WIRE 112 176 112 160
WIRE 208 176 112 176
WIRE 272 176 272 160
WIRE 272 176 208 176
WIRE 208 192 208 176
WIRE 880 208 880 160
WIRE 880 208 864 208
WIRE 1040 208 1040 160
WIRE 1040 208 1024 208
WIRE -144 256 -144 96
WIRE -144 256 -256 256
WIRE 128 256 -144 256
WIRE 144 256 128 256
WIRE 128 272 128 256
WIRE 448 272 448 -64
WIRE 448 272 128 272
WIRE 208 336 208 320
WIRE 208 336 192 336
FLAG 256 -288 Vdd
IOPIN 256 -288 In
FLAG 96 -288 Vdd
IOPIN 96 -288 In
FLAG 192 336 Vss
IOPIN 192 336 In
FLAG 272 96 Vss
IOPIN 272 96 In
FLAG 112 96 Vss
IOPIN 112 96 In
FLAG 272 -160 Vdd
IOPIN 272 -160 In
FLAG 112 -160 Vdd
IOPIN 112 -160 In
FLAG 208 256 Vss
IOPIN 208 256 In
FLAG -144 -112 Vdd
IOPIN -144 -112 In
FLAG -160 -16 Vdd
IOPIN -160 -16 In
FLAG 512 -48 Vss
IOPIN 512 -48 In
FLAG 512 48 Vss
IOPIN 512 48 In
FLAG 1040 96 Vss
IOPIN 1040 96 In
FLAG 880 96 Vss
IOPIN 880 96 In
FLAG 1040 -160 Vdd
IOPIN 1040 -160 In
FLAG 880 -160 Vdd
IOPIN 880 -160 In
FLAG 976 -320 Vdd
IOPIN 976 -320 In
FLAG 960 -432 Vdd
IOPIN 960 -432 In
FLAG -288 -80 D
IOPIN -288 -80 In
FLAG -256 16 Dbar
IOPIN -256 16 In
FLAG 1184 -80 Q
IOPIN 1184 -80 Out
FLAG 1152 16 Qbar
IOPIN 1152 16 Out
FLAG -256 256 Clk
IOPIN -256 256 In
FLAG 864 208 Vss
IOPIN 864 208 In
FLAG 1024 208 Vss
IOPIN 1024 208 In
FLAG 192 -80 A
FLAG 192 16 B
FLAG 720 -48 Vss
IOPIN 720 -48 In
FLAG 704 48 Vss
IOPIN 704 48 In
FLAG 640 96 En
IOPIN 640 96 In
SYMBOL cktsym\\pmos4 -144 16 R270
WINDOW 0 -38 73 VRight 2
WINDOW 3 16 16 Invisible 2
SYMATTR InstName M2
SYMATTR Value2 l=.6u w=1.2u
SYMBOL cktsym\\pmos4 -128 -80 R270
WINDOW 0 -55 46 VRight 2
WINDOW 3 16 16 Invisible 2
SYMATTR InstName M1
SYMATTR Value2 l=.6u w=1.2u
SYMBOL cktsym\\nmos4 464 16 R90
WINDOW 0 -27 52 VRight 2
WINDOW 3 16 16 Invisible 2
SYMATTR InstName M4
SYMATTR Value2 l=2.4u w=1.2u
SYMBOL cktsym\\nmos4 208 256 R0
WINDOW 0 -83 -30 Left 2
WINDOW 3 16 16 Invisible 2
SYMATTR InstName M5
SYMATTR Value2 l=.6u w=1.2u
SYMBOL cktsym\\nmos4 112 96 R0
WINDOW 0 -83 29 Left 2
WINDOW 3 16 16 Invisible 2
SYMATTR InstName M6
SYMATTR Value2 l=.6u w=1.2u
SYMBOL cktsym\\nmos4 272 96 M0
WINDOW 0 -79 54 Left 2
WINDOW 3 16 16 Invisible 2
SYMATTR InstName M7
SYMATTR Value2 l=.6u w=1.2u
SYMBOL cktsym\\pmos4 112 -160 R0
WINDOW 0 -77 -51 Left 2
WINDOW 3 16 16 Invisible 2
SYMATTR InstName M8
SYMATTR Value2 l=.6u w=1.2u
SYMBOL cktsym\\pmos4 272 -160 M0
WINDOW 0 -72 -57 Left 2
WINDOW 3 16 16 Invisible 2
SYMATTR InstName M9
SYMATTR Value2 l=.6u w=1.2u
SYMBOL cktsym\\pmos4 976 -320 R0
WINDOW 0 26 -43 Left 2
WINDOW 3 16 16 Invisible 2
SYMATTR InstName M10
SYMATTR Value2 l=.6u w=1.2u
SYMBOL cktsym\\nmos4 880 96 R0
WINDOW 0 -103 37 Left 2
WINDOW 3 16 16 Invisible 2
SYMATTR InstName M13
SYMATTR Value2 l=.6u w=1.2u
SYMBOL cktsym\\nmos4 1040 96 M0
WINDOW 0 -92 58 Left 2
WINDOW 3 16 16 Invisible 2
SYMATTR InstName M14
SYMATTR Value2 l=.6u w=1.2u
SYMBOL cktsym\\pmos4 880 -160 R0
WINDOW 0 -89 -51 Left 2
WINDOW 3 16 16 Invisible 2
SYMATTR InstName M11
SYMATTR Value2 l=.6u w=1.2u
SYMBOL cktsym\\pmos4 1040 -160 M0
WINDOW 0 -71 -63 Left 2
WINDOW 3 16 16 Invisible 2
SYMATTR InstName M12
SYMATTR Value2 l=.6u w=1.2u
SYMBOL cktsym\\nmos4 480 -80 R90
WINDOW 0 -27 52 VRight 2
WINDOW 3 16 16 Invisible 2
SYMATTR InstName M3
SYMATTR Value2 l=2.4u w=1.2u
SYMBOL cktsym\\nmos4 688 -80 R90
WINDOW 0 -27 52 VRight 2
WINDOW 3 16 16 Invisible 2
SYMATTR InstName M15
SYMATTR Value2 l=2.4u w=1.2u
SYMBOL cktsym\\nmos4 672 16 R90
WINDOW 0 -27 52 VRight 2
WINDOW 3 16 16 Invisible 2
SYMATTR InstName M16
SYMATTR Value2 l=2.4u w=1.2u
TEXT -232 288 Left 2 !.include engr3426.sub
