Version 4
SHEET 1 928 680
WIRE 80 64 -192 64
WIRE 272 64 80 64
WIRE 432 64 272 64
WIRE 592 64 432 64
WIRE 752 64 592 64
WIRE -192 96 -192 64
WIRE 272 128 272 64
WIRE 432 128 432 64
WIRE 592 128 592 64
WIRE 752 128 752 64
WIRE 128 160 -112 160
WIRE 208 160 128 160
WIRE 336 160 320 160
WIRE 368 160 336 160
WIRE 496 160 480 160
WIRE 528 160 496 160
WIRE 656 160 640 160
WIRE 688 160 656 160
WIRE 848 160 800 160
WIRE -112 176 -112 160
WIRE 144 208 -32 208
WIRE 208 208 144 208
WIRE 368 208 320 208
WIRE 528 208 480 208
WIRE 688 208 640 208
WIRE 848 208 800 208
WIRE -32 224 -32 208
WIRE 304 256 304 240
WIRE 304 256 112 256
WIRE 464 256 464 240
WIRE 464 256 304 256
WIRE 624 256 624 240
WIRE 624 256 464 256
WIRE 784 256 784 240
WIRE 784 256 624 256
WIRE 272 272 272 240
WIRE 272 272 192 272
WIRE 432 272 432 240
WIRE 432 272 272 272
WIRE 592 272 592 240
WIRE 592 272 432 272
WIRE 752 272 752 240
WIRE 752 272 592 272
WIRE 192 304 192 272
WIRE 64 336 -112 336
WIRE 240 336 240 240
WIRE 240 336 64 336
WIRE 400 336 400 240
WIRE 400 336 240 336
WIRE 560 336 560 240
WIRE 560 336 400 336
WIRE 720 336 720 240
WIRE 720 336 560 336
WIRE -112 352 -112 336
WIRE 112 352 112 256
FLAG -192 176 0
FLAG -112 432 0
FLAG -32 304 0
FLAG -112 256 0
FLAG 128 160 D0
FLAG 64 336 Clk
FLAG 848 208 Qbar
FLAG 144 208 Dbar
FLAG 80 64 Vdd
FLAG 192 304 0
FLAG 336 160 Q0
FLAG 496 160 Q1
FLAG 656 160 Q2
FLAG 848 160 Q3
FLAG 112 432 0
SYMBOL voltage -192 80 R0
WINDOW 123 0 0 Left 2
WINDOW 39 0 0 Left 2
SYMATTR InstName Vdd
SYMATTR Value 5
SYMBOL voltage -112 336 R0
WINDOW 3 24 96 Invisible 2
WINDOW 123 0 0 Left 2
WINDOW 39 0 0 Left 2
SYMATTR Value PULSE(0 5 2u 1n 1n 7u 14u 100)
SYMATTR InstName Clk
SYMBOL voltage -32 208 R0
WINDOW 3 24 96 Invisible 2
WINDOW 123 0 0 Left 2
WINDOW 39 0 0 Left 2
SYMATTR Value PULSE(5 0 10u 1n 1n 10u 80u 2)
SYMATTR InstName Dbar
SYMBOL voltage -112 160 R0
WINDOW 3 24 96 Invisible 2
WINDOW 123 0 0 Left 2
WINDOW 39 0 0 Left 2
SYMATTR Value PULSE(0 5 10u 1n 1n 10u 80u 2)
SYMATTR InstName D
SYMBOL dflipflop 272 192 R0
WINDOW 0 -48 -66 Bottom 2
SYMATTR InstName X2
SYMBOL dflipflop 432 192 R0
WINDOW 0 -47 -67 Bottom 2
SYMATTR InstName X1
SYMBOL dflipflop 592 192 R0
WINDOW 0 -37 -68 Bottom 2
SYMATTR InstName X3
SYMBOL dflipflop 752 192 R0
WINDOW 0 -48 -67 Bottom 2
SYMATTR InstName X4
SYMBOL voltage 112 336 R0
WINDOW 3 24 96 Invisible 2
WINDOW 123 0 0 Left 2
WINDOW 39 0 0 Left 2
SYMATTR Value PULSE(5 0 0 1n 1n 100u 200u 1)
SYMATTR InstName Enable
TEXT -200 24 Left 2 !.tran 0 200u 0 1u
TEXT -200 -8 Left 2 !.include engr3426.sub
