Version 4
SHEET 1 880 680
WIRE 80 64 -192 64
WIRE 272 64 80 64
WIRE 416 64 272 64
WIRE 560 64 416 64
WIRE 704 64 560 64
WIRE -192 96 -192 64
WIRE 272 128 272 64
WIRE 416 128 416 64
WIRE 560 128 560 64
WIRE 704 128 704 64
WIRE 128 160 -112 160
WIRE 208 160 128 160
WIRE 320 160 304 160
WIRE 352 160 320 160
WIRE 464 160 448 160
WIRE 496 160 464 160
WIRE 608 160 592 160
WIRE 640 160 608 160
WIRE 784 160 736 160
WIRE -112 176 -112 160
WIRE 144 208 -32 208
WIRE 208 208 144 208
WIRE 352 208 304 208
WIRE 496 208 448 208
WIRE 640 208 592 208
WIRE 752 208 736 208
WIRE -32 224 -32 208
WIRE 272 272 272 240
WIRE 272 272 192 272
WIRE 416 272 416 240
WIRE 416 272 272 272
WIRE 560 272 560 240
WIRE 560 272 416 272
WIRE 704 272 704 240
WIRE 704 272 560 272
WIRE 192 304 192 272
WIRE 64 336 -112 336
WIRE 240 336 240 240
WIRE 240 336 64 336
WIRE 384 336 384 240
WIRE 384 336 240 336
WIRE 528 336 528 240
WIRE 528 336 384 336
WIRE 672 336 672 240
WIRE 672 336 528 336
WIRE -112 352 -112 336
FLAG -192 176 0
FLAG -112 432 0
FLAG -32 304 0
FLAG -112 256 0
FLAG 128 160 D0
FLAG 64 336 Clk
FLAG 752 208 Qbar
FLAG 144 208 Dbar
FLAG 80 64 Vdd
FLAG 192 304 0
FLAG 320 160 Q0
FLAG 464 160 Q1
FLAG 608 160 Q2
FLAG 784 160 Q3
SYMBOL voltage -192 80 R0
WINDOW 123 0 0 Left 2
WINDOW 39 0 0 Left 2
SYMATTR InstName Vdd
SYMATTR Value 5
SYMBOL voltage -112 336 R0
WINDOW 3 24 96 Invisible 2
WINDOW 123 0 0 Left 2
WINDOW 39 0 0 Left 2
SYMATTR Value PULSE(0 5 2u 1n 1n 7u 14u 100)
SYMATTR InstName Clk
SYMBOL voltage -32 208 R0
WINDOW 3 24 96 Invisible 2
WINDOW 123 0 0 Left 2
WINDOW 39 0 0 Left 2
SYMATTR Value PULSE(5 0 10u 1n 1n 10u 20u 1)
SYMATTR InstName Dbar
SYMBOL voltage -112 160 R0
WINDOW 3 24 96 Invisible 2
WINDOW 123 0 0 Left 2
WINDOW 39 0 0 Left 2
SYMATTR Value PULSE(0 5 10u 1n 1n 10u 20u 1)
SYMATTR InstName D
SYMBOL dflipflop 272 192 R0
WINDOW 0 -48 -66 Bottom 2
SYMATTR InstName X2
SYMBOL dflipflop 416 192 R0
WINDOW 0 -47 -67 Bottom 2
SYMATTR InstName X1
SYMBOL dflipflop 560 192 R0
WINDOW 0 -37 -68 Bottom 2
SYMATTR InstName X3
SYMBOL dflipflop 704 192 R0
WINDOW 0 -48 -67 Bottom 2
SYMATTR InstName X4
TEXT -200 24 Left 2 !.tran 0 100u 0 1u
TEXT -200 -8 Left 2 !.include engr3426.sub
