Version 4
SHEET 1 2428 892
WIRE 240 -176 240 -192
WIRE 432 -176 240 -176
WIRE 592 -176 432 -176
WIRE 752 -176 592 -176
WIRE 912 -176 752 -176
WIRE 432 -144 432 -176
WIRE 592 -144 592 -176
WIRE 752 -144 752 -176
WIRE 912 -144 912 -176
WIRE 368 -112 336 -112
WIRE 480 -112 480 -240
WIRE 480 -112 464 -112
WIRE 528 -112 496 -112
WIRE 640 -112 640 -240
WIRE 640 -112 624 -112
WIRE 688 -112 656 -112
WIRE 800 -112 800 -240
WIRE 800 -112 784 -112
WIRE 848 -112 816 -112
WIRE 960 -112 960 -240
WIRE 960 -112 944 -112
WIRE 368 -64 352 -64
WIRE 528 -64 512 -64
WIRE 688 -64 672 -64
WIRE 848 -64 832 -64
WIRE 400 -16 400 -32
WIRE 400 -16 160 -16
WIRE 560 -16 560 -32
WIRE 560 -16 400 -16
WIRE 720 -16 720 -32
WIRE 720 -16 560 -16
WIRE 880 -16 880 -32
WIRE 880 -16 720 -16
WIRE 432 0 432 -32
WIRE 432 0 192 0
WIRE 592 0 592 -32
WIRE 592 0 432 0
WIRE 752 0 752 -32
WIRE 752 0 592 0
WIRE 912 0 912 -32
WIRE 912 0 752 0
WIRE 192 16 192 0
WIRE 240 64 240 -176
WIRE 272 64 240 64
WIRE 432 64 272 64
WIRE 592 64 432 64
WIRE 752 64 592 64
WIRE 272 128 272 64
WIRE 432 128 432 64
WIRE 592 128 592 64
WIRE 752 128 752 64
WIRE -240 160 -240 80
WIRE -240 160 -320 160
WIRE 208 160 -240 160
WIRE 336 160 336 -112
WIRE 336 160 320 160
WIRE 368 160 336 160
WIRE 496 160 496 -112
WIRE 496 160 480 160
WIRE 528 160 496 160
WIRE 656 160 656 -112
WIRE 656 160 640 160
WIRE 688 160 656 160
WIRE 816 160 816 -112
WIRE 816 160 800 160
WIRE -176 208 -176 144
WIRE 144 208 -176 208
WIRE 208 208 144 208
WIRE 352 208 352 -64
WIRE 352 208 320 208
WIRE 368 208 352 208
WIRE 512 208 512 -64
WIRE 512 208 480 208
WIRE 528 208 512 208
WIRE 672 208 672 -64
WIRE 672 208 640 208
WIRE 688 208 672 208
WIRE 832 208 832 -64
WIRE 832 208 800 208
WIRE -176 224 -176 208
WIRE 240 256 240 240
WIRE 240 256 160 256
WIRE 400 256 400 240
WIRE 400 256 240 256
WIRE 560 256 560 240
WIRE 560 256 400 256
WIRE 720 256 720 240
WIRE 720 256 560 256
WIRE -240 288 -240 160
WIRE -96 432 -96 368
WIRE -96 432 -320 432
WIRE -32 448 -32 432
WIRE 304 448 304 240
WIRE 304 448 -32 448
WIRE 464 448 464 240
WIRE 464 448 304 448
WIRE 624 448 624 240
WIRE 624 448 464 448
WIRE 784 448 784 240
WIRE 784 448 624 448
WIRE -32 464 -32 448
WIRE 272 480 272 240
WIRE 272 480 192 480
WIRE 432 480 432 240
WIRE 432 480 272 480
WIRE 592 480 592 240
WIRE 592 480 432 480
WIRE 752 480 752 240
WIRE 752 480 592 480
WIRE 192 496 192 480
WIRE -96 528 -96 432
FLAG 144 208 Dbar
FLAG 192 496 Vss
IOPIN 192 496 In
FLAG 240 -192 Vdd
IOPIN 240 -192 In
FLAG -320 160 MOSI
IOPIN -320 160 In
FLAG 160 256 CLK
IOPIN 160 256 In
FLAG -176 352 Vss
IOPIN -176 352 In
FLAG -176 288 Vss
IOPIN -176 288 In
FLAG -176 80 Vdd
IOPIN -176 80 In
FLAG -176 16 Vdd
IOPIN -176 16 In
FLAG 480 -240 B0
IOPIN 480 -240 Out
FLAG 640 -240 B1
IOPIN 640 -240 Out
FLAG 800 -240 B2
IOPIN 800 -240 Out
FLAG 960 -240 B3
IOPIN 960 -240 Out
FLAG -32 592 Vss
IOPIN -32 592 In
FLAG -32 528 Vss
IOPIN -32 528 In
FLAG -32 368 Vdd
IOPIN -32 368 In
FLAG -32 304 Vdd
IOPIN -32 304 In
FLAG -320 432 CSn
IOPIN -320 432 In
FLAG 160 -16 SET
IOPIN 160 -16 In
FLAG 192 16 Vss
IOPIN 192 16 In
SYMBOL dflipflop 432 192 R0
WINDOW 0 -48 -66 Bottom 2
SYMATTR InstName X2
SYMBOL dflipflop 272 192 R0
WINDOW 0 -47 -67 Bottom 2
SYMATTR InstName X1
SYMBOL dflipflop 592 192 R0
WINDOW 0 -37 -68 Bottom 2
SYMATTR InstName X3
SYMBOL dflipflop 752 192 R0
WINDOW 0 -48 -67 Bottom 2
SYMATTR InstName X4
SYMBOL cktsym\\nmos4 -176 288 R0
SYMATTR InstName M1
SYMATTR Value2 l=1.8u w=18u
SYMBOL cktsym\\pmos4 -176 80 R0
SYMATTR InstName M2
SYMATTR Value2 l=1.8u w=18u
SYMBOL cktsym\\nmos4 -32 528 R0
SYMATTR InstName M3
SYMATTR Value2 l=1.8u w=18u
SYMBOL cktsym\\pmos4 -32 368 R0
SYMATTR InstName M4
SYMATTR Value2 l=1.8u w=18u
SYMBOL dflipflopsimple 432 -80 R0
SYMATTR InstName X5
SYMBOL dflipflopsimple 592 -80 R0
SYMATTR InstName X6
SYMBOL dflipflopsimple 752 -80 R0
SYMATTR InstName X7
SYMBOL dflipflopsimple 912 -80 R0
SYMATTR InstName X8
TEXT -8 640 Left 2 !.include engr3426.sub
