Version 4
SHEET 1 2428 884
WIRE 80 64 -192 64
WIRE 272 64 80 64
WIRE 432 64 272 64
WIRE 592 64 432 64
WIRE 752 64 592 64
WIRE 272 128 272 64
WIRE 432 128 432 64
WIRE 592 128 592 64
WIRE 752 128 752 64
WIRE -432 160 -432 112
WIRE 208 160 -432 160
WIRE 352 160 352 -32
WIRE 352 160 320 160
WIRE 368 160 352 160
WIRE 512 160 512 -32
WIRE 512 160 480 160
WIRE 528 160 512 160
WIRE 672 160 672 -32
WIRE 672 160 640 160
WIRE 688 160 672 160
WIRE 832 160 832 -32
WIRE 832 160 800 160
WIRE 848 160 832 160
WIRE -432 192 -432 160
WIRE -432 192 -512 192
WIRE -368 192 -368 176
WIRE -320 192 -368 192
WIRE -320 208 -320 192
WIRE -320 208 -368 208
WIRE 144 208 -320 208
WIRE 208 208 144 208
WIRE 368 208 320 208
WIRE 528 208 480 208
WIRE 688 208 640 208
WIRE 848 208 800 208
WIRE -432 256 -432 192
WIRE 304 256 304 240
WIRE 304 256 112 256
WIRE 464 256 464 240
WIRE 464 256 304 256
WIRE 624 256 624 240
WIRE 624 256 464 256
WIRE 784 256 784 240
WIRE 784 256 624 256
WIRE 272 272 272 240
WIRE 272 272 192 272
WIRE 432 272 432 240
WIRE 432 272 272 272
WIRE 592 272 592 240
WIRE 592 272 432 272
WIRE 752 272 752 240
WIRE 752 272 592 272
WIRE 192 304 192 272
WIRE 240 336 240 240
WIRE 240 336 -112 336
WIRE 400 336 400 240
WIRE 400 336 240 336
WIRE 560 336 560 240
WIRE 560 336 400 336
WIRE 720 336 720 240
WIRE 720 336 560 336
WIRE -432 608 -432 544
WIRE -432 608 -464 608
WIRE -368 624 -368 608
WIRE 112 624 112 256
WIRE 112 624 -368 624
WIRE -432 688 -432 608
FLAG 848 208 Qbar
FLAG 144 208 Dbar
FLAG 80 64 Vdd
FLAG 192 304 Vss
IOPIN 192 304 In
FLAG -192 64 Vdd
IOPIN -192 64 In
FLAG -512 192 MOSI
IOPIN -512 192 In
FLAG -112 336 CLK
IOPIN -112 336 In
FLAG -368 320 Vss
IOPIN -368 320 In
FLAG -368 256 Vss
IOPIN -368 256 In
FLAG -368 112 Vdd
IOPIN -368 112 In
FLAG -368 48 Vdd
IOPIN -368 48 In
FLAG 352 -32 B0
IOPIN 352 -32 Out
FLAG 512 -32 B1
IOPIN 512 -32 Out
FLAG 672 -32 B2
IOPIN 672 -32 Out
FLAG 832 -32 B3
IOPIN 832 -32 Out
FLAG -368 752 Vss
IOPIN -368 752 In
FLAG -368 688 Vss
IOPIN -368 688 In
FLAG -368 544 Vdd
IOPIN -368 544 In
FLAG -368 480 Vdd
IOPIN -368 480 In
FLAG -464 608 CSn
IOPIN -464 608 In
SYMBOL dflipflop 272 192 R0
WINDOW 0 -48 -66 Bottom 2
SYMATTR InstName X2
SYMBOL dflipflop 432 192 R0
WINDOW 0 -47 -67 Bottom 2
SYMATTR InstName X1
SYMBOL dflipflop 592 192 R0
WINDOW 0 -37 -68 Bottom 2
SYMATTR InstName X3
SYMBOL dflipflop 752 192 R0
WINDOW 0 -48 -67 Bottom 2
SYMATTR InstName X4
SYMBOL cktsym\\nmos4 -368 256 R0
SYMATTR InstName M1
SYMATTR Value2 l=1.8u w=18u
SYMBOL cktsym\\pmos4 -368 112 R0
SYMATTR InstName M2
SYMATTR Value2 l=1.8u w=18u
SYMBOL cktsym\\nmos4 -368 688 R0
SYMATTR InstName M3
SYMATTR Value2 l=1.8u w=18u
SYMBOL cktsym\\pmos4 -368 544 R0
SYMATTR InstName M4
SYMATTR Value2 l=1.8u w=18u
TEXT -200 -8 Left 2 !.include engr3426.sub
TEXT -312 192 Left 1 ;I hate you spice
