Version 4
SHEET 1 2428 892
WIRE 176 64 176 16
WIRE 224 64 176 64
WIRE 272 64 224 64
WIRE 432 64 272 64
WIRE 592 64 432 64
WIRE 752 64 592 64
WIRE 272 128 272 64
WIRE 432 128 432 64
WIRE 592 128 592 64
WIRE 752 128 752 64
WIRE -240 160 -240 80
WIRE 208 160 -240 160
WIRE 352 160 352 0
WIRE 352 160 320 160
WIRE 368 160 352 160
WIRE 512 160 512 0
WIRE 512 160 480 160
WIRE 528 160 512 160
WIRE 672 160 672 0
WIRE 672 160 640 160
WIRE 688 160 672 160
WIRE 832 160 832 0
WIRE 832 160 800 160
WIRE -240 208 -240 160
WIRE -240 208 -320 208
WIRE -176 208 -176 144
WIRE 144 208 -176 208
WIRE 208 208 144 208
WIRE 368 208 320 208
WIRE 528 208 480 208
WIRE 688 208 640 208
WIRE 848 208 800 208
WIRE -176 224 -176 208
WIRE 304 256 304 240
WIRE 304 256 64 256
WIRE 464 256 464 240
WIRE 464 256 304 256
WIRE 624 256 624 240
WIRE 624 256 464 256
WIRE 784 256 784 240
WIRE 784 256 624 256
WIRE 272 272 272 240
WIRE 272 272 192 272
WIRE 432 272 432 240
WIRE 432 272 272 272
WIRE 592 272 592 240
WIRE 592 272 432 272
WIRE 752 272 752 240
WIRE 752 272 592 272
WIRE -240 288 -240 208
WIRE 192 288 192 272
WIRE 240 368 240 240
WIRE 240 368 160 368
WIRE 400 368 400 240
WIRE 400 368 240 368
WIRE 560 368 560 240
WIRE 560 368 400 368
WIRE 720 368 720 240
WIRE 720 368 560 368
WIRE -96 432 -96 368
WIRE -96 432 -320 432
WIRE -32 448 -32 432
WIRE 64 448 64 256
WIRE 64 448 -32 448
WIRE -32 464 -32 448
WIRE -96 528 -96 432
FLAG 848 208 Qbar
FLAG 144 208 Dbar
FLAG 224 64 Vdd
FLAG 192 288 Vss
IOPIN 192 288 In
FLAG 176 16 Vdd
IOPIN 176 16 In
FLAG -320 208 MOSI
IOPIN -320 208 In
FLAG 160 368 CLK
IOPIN 160 368 In
FLAG -176 352 Vss
IOPIN -176 352 In
FLAG -176 288 Vss
IOPIN -176 288 In
FLAG -176 80 Vdd
IOPIN -176 80 In
FLAG -176 16 Vdd
IOPIN -176 16 In
FLAG 352 0 B0
IOPIN 352 0 Out
FLAG 512 0 B1
IOPIN 512 0 Out
FLAG 672 0 B2
IOPIN 672 0 Out
FLAG 832 0 B3
IOPIN 832 0 Out
FLAG -32 592 Vss
IOPIN -32 592 In
FLAG -32 528 Vss
IOPIN -32 528 In
FLAG -32 368 Vdd
IOPIN -32 368 In
FLAG -32 304 Vdd
IOPIN -32 304 In
FLAG -320 432 CSn
IOPIN -320 432 In
SYMBOL dflipflop 272 192 R0
WINDOW 0 -48 -66 Bottom 2
SYMATTR InstName X2
SYMBOL dflipflop 432 192 R0
WINDOW 0 -47 -67 Bottom 2
SYMATTR InstName X1
SYMBOL dflipflop 592 192 R0
WINDOW 0 -37 -68 Bottom 2
SYMATTR InstName X3
SYMBOL dflipflop 752 192 R0
WINDOW 0 -48 -67 Bottom 2
SYMATTR InstName X4
SYMBOL cktsym\\nmos4 -176 288 R0
SYMATTR InstName M1
SYMATTR Value2 l=1.8u w=18u
SYMBOL cktsym\\pmos4 -176 80 R0
SYMATTR InstName M2
SYMATTR Value2 l=1.8u w=18u
SYMBOL cktsym\\nmos4 -32 528 R0
SYMATTR InstName M3
SYMATTR Value2 l=1.8u w=18u
SYMBOL cktsym\\pmos4 -32 368 R0
SYMATTR InstName M4
SYMATTR Value2 l=1.8u w=18u
TEXT -8 640 Left 2 !.include engr3426.sub
