Version 4
SHEET 1 2428 892
WIRE 240 -272 240 -288
WIRE 432 -272 240 -272
WIRE 592 -272 432 -272
WIRE 752 -272 592 -272
WIRE 912 -272 752 -272
WIRE 432 -240 432 -272
WIRE 592 -240 592 -272
WIRE 752 -240 752 -272
WIRE 912 -240 912 -272
WIRE 368 -208 336 -208
WIRE 480 -208 480 -336
WIRE 480 -208 464 -208
WIRE 528 -208 496 -208
WIRE 640 -208 640 -336
WIRE 640 -208 624 -208
WIRE 688 -208 656 -208
WIRE 800 -208 800 -336
WIRE 800 -208 784 -208
WIRE 848 -208 816 -208
WIRE 960 -208 960 -336
WIRE 960 -208 944 -208
WIRE 368 -160 352 -160
WIRE 528 -160 512 -160
WIRE 688 -160 672 -160
WIRE 848 -160 832 -160
WIRE 400 -112 400 -128
WIRE 560 -112 560 -128
WIRE 560 -112 400 -112
WIRE 720 -112 720 -128
WIRE 720 -112 560 -112
WIRE 880 -112 880 -128
WIRE 880 -112 720 -112
WIRE 432 -96 432 -128
WIRE 432 -96 192 -96
WIRE 592 -96 592 -128
WIRE 592 -96 432 -96
WIRE 752 -96 752 -128
WIRE 752 -96 592 -96
WIRE 912 -96 912 -128
WIRE 912 -96 752 -96
WIRE 192 -80 192 -96
WIRE 240 80 240 -272
WIRE 272 80 240 80
WIRE 432 80 272 80
WIRE 592 80 432 80
WIRE 752 80 592 80
WIRE 272 128 272 80
WIRE 432 128 432 80
WIRE 592 128 592 80
WIRE 752 128 752 80
WIRE -240 160 -240 80
WIRE -240 160 -304 160
WIRE 208 160 -240 160
WIRE 336 160 336 -208
WIRE 336 160 320 160
WIRE 368 160 336 160
WIRE 496 160 496 -208
WIRE 496 160 480 160
WIRE 528 160 496 160
WIRE 656 160 656 -208
WIRE 656 160 640 160
WIRE 688 160 656 160
WIRE 816 160 816 -208
WIRE 816 160 800 160
WIRE -176 208 -176 144
WIRE 144 208 -176 208
WIRE 208 208 144 208
WIRE 352 208 352 -160
WIRE 352 208 320 208
WIRE 368 208 352 208
WIRE 512 208 512 -160
WIRE 512 208 480 208
WIRE 528 208 512 208
WIRE 672 208 672 -160
WIRE 672 208 640 208
WIRE 688 208 672 208
WIRE 832 208 832 -160
WIRE 832 208 800 208
WIRE -176 224 -176 208
WIRE 240 256 240 240
WIRE 240 256 160 256
WIRE 400 256 400 240
WIRE 400 256 240 256
WIRE 560 256 560 240
WIRE 560 256 400 256
WIRE 720 256 720 240
WIRE 720 256 560 256
WIRE -240 288 -240 160
WIRE 272 288 272 240
WIRE 272 288 192 288
WIRE 432 288 432 240
WIRE 432 288 272 288
WIRE 592 288 592 240
WIRE 592 288 432 288
WIRE 752 288 752 240
WIRE 752 288 592 288
WIRE 192 352 192 288
WIRE -96 448 -96 368
WIRE -96 448 -320 448
WIRE -32 448 -32 432
WIRE 96 448 -32 448
WIRE 304 448 304 240
WIRE 304 448 96 448
WIRE 464 448 464 240
WIRE 464 448 304 448
WIRE 624 448 624 240
WIRE 624 448 464 448
WIRE 784 448 784 240
WIRE 784 448 624 448
WIRE 880 448 880 -112
WIRE 880 448 784 448
WIRE -32 464 -32 448
WIRE -96 528 -96 448
FLAG 144 208 Dbar
FLAG 192 352 Vss
IOPIN 192 352 In
FLAG 240 -288 Vdd
IOPIN 240 -288 In
FLAG -304 160 MOSI
IOPIN -304 160 In
FLAG 160 256 CLK
IOPIN 160 256 In
FLAG -176 352 Vss
IOPIN -176 352 In
FLAG -176 288 Vss
IOPIN -176 288 In
FLAG -176 80 Vdd
IOPIN -176 80 In
FLAG -176 16 Vdd
IOPIN -176 16 In
FLAG 480 -336 B0
IOPIN 480 -336 Out
FLAG 640 -336 B1
IOPIN 640 -336 Out
FLAG 800 -336 B2
IOPIN 800 -336 Out
FLAG 960 -336 B3
IOPIN 960 -336 Out
FLAG -32 592 Vss
IOPIN -32 592 In
FLAG -32 528 Vss
IOPIN -32 528 In
FLAG -32 368 Vdd
IOPIN -32 368 In
FLAG -32 304 Vdd
IOPIN -32 304 In
FLAG -320 448 CSn
IOPIN -320 448 In
FLAG 192 -80 Vss
IOPIN 192 -80 In
FLAG 96 448 Cs
SYMBOL dflipflop 432 192 R0
WINDOW 0 -48 -66 Bottom 2
SYMATTR InstName X2
SYMBOL dflipflop 272 192 R0
WINDOW 0 -47 -67 Bottom 2
SYMATTR InstName X1
SYMBOL dflipflop 592 192 R0
WINDOW 0 -37 -68 Bottom 2
SYMATTR InstName X3
SYMBOL dflipflop 752 192 R0
WINDOW 0 -48 -67 Bottom 2
SYMATTR InstName X4
SYMBOL cktsym\\nmos4 -176 288 R0
SYMATTR InstName M1
SYMATTR Value2 l=.6u w=1.2u
SYMBOL cktsym\\pmos4 -176 80 R0
SYMATTR InstName M2
SYMATTR Value2 l=.6u w=1.2u
SYMBOL cktsym\\nmos4 -32 528 R0
SYMATTR InstName M3
SYMATTR Value2 l=.6u w=1.2u
SYMBOL cktsym\\pmos4 -32 368 R0
SYMATTR InstName M4
SYMATTR Value2 l=.6u w=1.2u
SYMBOL dflipflopsimple 432 -176 R0
SYMATTR InstName X5
SYMBOL dflipflopsimple 592 -176 R0
SYMATTR InstName X6
SYMBOL dflipflopsimple 752 -176 R0
SYMATTR InstName X7
SYMBOL dflipflopsimple 912 -176 R0
SYMATTR InstName X8
TEXT -8 640 Left 2 !.include engr3426.sub
TEXT 88 48 Left 2 ;Shift Register
RECTANGLE Normal 848 304 176 64 2
